bdgd_tools/exemplo.txt
! Cria��o da se��o de cargas BT
New "Load.BT_2806091_M1" bus1="UC2806091.1.4" phases=1 conn=Wye model=2 kv=0.22 kw=0.422463 pf=0.92 daily="RU8_DO" status=variable vmaxpu=1.5 vminpu=0.92
New "Load.BT_2806091_M2" bus1="UC2806091.1.4" phases=1 conn=Wye model=3 kv=0.22 kw=0.422463 pf=0.92 daily="RU8_DO" status=variable vmaxpu=1.5 vminpu=0.92
New "Load.BT_2806092_M1" bus1="UC2806092.2.4" phases=1 conn=Wye model=2 kv=0.22 kw=0.3435785 pf=0.92 daily="RU4_DO" status=variable vmaxpu=1.5 vminpu=0.92
New "Load.BT_2806092_M2" bus1="UC2806092.2.4" phases=1 conn=Wye model=3 kv=0.22 kw=0.3435785 pf=0.92 daily="RU4_DO" status=variable vmaxpu=1.5 vminpu=0.92
New "Load.BT_2818333_M1" bus1="UC2818333.1.4" phases=1 conn=Wye model=2 kv=0.22 kw=0.0659805 pf=0.92 daily="RU6_DO" status=variable vmaxpu=1.5 vminpu=0.92
New "Load.BT_2818333_M2" bus1="UC2818333.1.4" phases=1 conn=Wye model=3 kv=0.22 kw=0.0659805 pf=0.92 daily="RU6_DO" status=variable vmaxpu=1.5 vminpu=0.92
New "Load.BT_2805229_M1" bus1="UC2805229.2.4" phases=1 conn=Wye model=2 kv=0.22 kw=0.0173455 pf=0.92 daily="RU1_DO" status=variable vmaxpu=1.5 vminpu=0.92
New "Load.BT_2805229_M2" bus1="UC2805229.2.4" phases=1 conn=Wye model=3 kv=0.22 kw=0.0173455 pf=0.92 daily="RU1_DO" status=variable vmaxpu=1.5 vminpu=0.92
New "Load.BT_2833912_M1" bus1="UC2833912.1.4" phases=1 conn=Wye model=2 kv=0.22 kw=0.103848 pf=0.92 daily="RU7_DO" status=variable vmaxpu=1.5 vminpu=0.92
New "Load.BT_2833912_M2" bus1="UC2833912.1.4" phases=1 conn=Wye model=3 kv=0.22 kw=0.103848 pf=0.92 daily="RU7_DO" status=variable vmaxpu=1.5 vminpu=0.92
New "Load.BT_2830102_M1" bus1="UC2830102.1.4" phases=1 conn=Wye model=2 kv=0.22 kw=0.144984 pf=0.92 daily="RU3_DO" status=variable vmaxpu=1.5 vminpu=0.92
New "Load.BT_2830102_M2" bus1="UC2830102.1.4" phases=1 conn=Wye model=3 kv=0.22 kw=0.144984 pf=0.92 daily="RU3_DO" status=variable vmaxpu=1.5 vminpu=0.92
New "Load.BT_2838191_M1" bus1="UC2838191.1.4" phases=1 conn=Wye model=2 kv=0.22 kw=0 pf=0.92 daily="RU5_DO" status=variable vmaxpu=1.5 vminpu=0.92
New "Load.BT_2838191_M2" bus1="UC2838191.1.4" phases=1 conn=Wye model=3 kv=0.22 kw=0 pf=0.92 daily="RU5_DO" status=variable vmaxpu=1.5 vminpu=0.92
New "Load.BT_2817004_M1" bus1="UC2817004.1.4" phases=1 conn=Wye model=2 kv=0.22 kw=0.01064 pf=0.92 daily="RU1_DO" status=variable vmaxpu=1.5 vminpu=0.92
New "Load.BT_2817004_M2" bus1="UC2817004.1.4" phases=1 conn=Wye model=3 kv=0.22 kw=0.01064 pf=0.92 daily="RU1_DO" status=variable vmaxpu=1.5 vminpu=0.92
New "Load.BT_2805220_M1" bus1="UC2805220.2.4" phases=1 conn=Wye model=2 kv=0.22 kw=0.242408 pf=0.92 daily="RU4_DO" status=variable vmaxpu=1.5 vminpu=0.92
New "Load.BT_2805220_M2" bus1="UC2805220.2.4" phases=1 conn=Wye model=3 kv=0.22 kw=0.242408 pf=0.92 daily="RU4_DO" status=variable vmaxpu=1.5 vminpu=0.92
New "Load.BT_2805390_M1" bus1="UC2805390.1.2.4" phases=1 conn=Delta model=2 kv=0.44 kw=0.428191 pf=0.92 daily="RU8_DO" status=variable vmaxpu=1.5 vminpu=0.92
New "Load.BT_2805390_M2" bus1="UC2805390.1.2.4" phases=1 conn=Delta model=3 kv=0.44 kw=0.428191 pf=0.92 daily="RU8_DO" status=variable vmaxpu=1.5 vminpu=0.92
New "Load.BT_2805398_M1" bus1="UC2805398.1.4" phases=1 conn=Wye model=2 kv=0.22 kw=0.1469715 pf=0.92 daily="RU7_DO" status=variable vmaxpu=1.5 vminpu=0.92
New "Load.BT_2805398_M2" bus1="UC2805398.1.4" phases=1 conn=Wye model=3 kv=0.22 kw=0.1469715 pf=0.92 daily="RU7_DO" status=variable vmaxpu=1.5 vminpu=0.92
New "Load.BT_2805358_M1" bus1="UC2805358.1.4" phases=1 conn=Wye model=2 kv=0.22 kw=0.117049 pf=0.92 daily="RU7_DO" status=variable vmaxpu=1.5 vminpu=0.92
New "Load.BT_2805358_M2" bus1="UC2805358.1.4" phases=1 conn=Wye model=3 kv=0.22 kw=0.117049 pf=0.92 daily="RU7_DO" status=variable vmaxpu=1.5 vminpu=0.92
New "Load.BT_2827090_M1" bus1="UC2827090.2.4" phases=1 conn=Wye model=2 kv=0.22 kw=0.012413 pf=0.92 daily="RU1_DO" status=variable vmaxpu=1.5 vminpu=0.92
New "Load.BT_2827090_M2" bus1="UC2827090.2.4" phases=1 conn=Wye model=3 kv=0.22 kw=0.012413 pf=0.92 daily="RU1_DO" status=variable vmaxpu=1.5 vminpu=0.92
New "Load.BT_2835697_M1" bus1="UC2835697.1.2.4" phases=1 conn=Delta model=2 kv=0.44 kw=0.421877 pf=0.92 daily="RU6_DO" status=variable vmaxpu=1.5 vminpu=0.92
New "Load.BT_2835697_M2" bus1="UC2835697.1.2.4" phases=1 conn=Delta model=3 kv=0.44 kw=0.421877 pf=0.92 daily="RU6_DO" status=variable vmaxpu=1.5 vminpu=0.92
New "Load.BT_2833920_M1" bus1="UC2833920.1.4" phases=1 conn=Wye model=2 kv=0.22 kw=0.074468 pf=0.92 daily="RU8_DO" status=variable vmaxpu=1.5 vminpu=0.92
New "Load.BT_2833920_M2" bus1="UC2833920.1.4" phases=1 conn=Wye model=3 kv=0.22 kw=0.074468 pf=0.92 daily="RU8_DO" status=variable vmaxpu=1.5 vminpu=0.92
New "Load.BT_2827935_M1" bus1="UC2827935.1.4" phases=1 conn=Wye model=2 kv=0.22 kw=0.297501 pf=0.92 daily="RU4_DO" status=variable vmaxpu=1.5 vminpu=0.92
New "Load.BT_2827935_M2" bus1="UC2827935.1.4" phases=1 conn=Wye model=3 kv=0.22 kw=0.297501 pf=0.92 daily="RU4_DO" status=variable vmaxpu=1.5 vminpu=0.92
New "Load.BT_2805430_M1" bus1="UC2805430.2.4" phases=1 conn=Wye model=2 kv=0.22 kw=0.179302 pf=0.92 daily="RU4_DO" status=variable vmaxpu=1.5 vminpu=0.92
New "Load.BT_2805430_M2" bus1="UC2805430.2.4" phases=1 conn=Wye model=3 kv=0.22 kw=0.179302 pf=0.92 daily="RU4_DO" status=variable vmaxpu=1.5 vminpu=0.92
New "Load.BT_2805434_M1" bus1="UC2805434.1.4" phases=1 conn=Wye model=2 kv=0.22 kw=0.0240765 pf=0.92 daily="CO5_DO" status=variable vmaxpu=1.5 vminpu=0.92
New "Load.BT_2805434_M2" bus1="UC2805434.1.4" phases=1 conn=Wye model=3 kv=0.22 kw=0.0240765 pf=0.92 daily="CO5_DO" status=variable vmaxpu=1.5 vminpu=0.92
New "Load.BT_2805310_M1" bus1="UC2805310.2.4" phases=1 conn=Wye model=2 kv=0.22 kw=0.0264335 pf=0.92 daily="RU1_DO" status=variable vmaxpu=1.5 vminpu=0.92
New "Load.BT_2805310_M2" bus1="UC2805310.2.4" phases=1 conn=Wye model=3 kv=0.22 kw=0.0264335 pf=0.92 daily="RU1_DO" status=variable vmaxpu=1.5 vminpu=0.92
New "Load.BT_2805311_M1" bus1="UC2805311.2.4" phases=1 conn=Wye model=2 kv=0.22 kw=0.100245 pf=0.92 daily="RU8_DO" status=variable vmaxpu=1.5 vminpu=0.92
New "Load.BT_2805311_M2" bus1="UC2805311.2.4" phases=1 conn=Wye model=3 kv=0.22 kw=0.100245 pf=0.92 daily="RU8_DO" status=variable vmaxpu=1.5 vminpu=0.92
New "Load.BT_2832910_M1" bus1="UC2832910.1.4" phases=1 conn=Wye model=2 kv=0.22 kw=0.1179295 pf=0.92 daily="RU7_DO" status=variable vmaxpu=1.5 vminpu=0.92
New "Load.BT_2832910_M2" bus1="UC2832910.1.4" phases=1 conn=Wye model=3 kv=0.22 kw=0.1179295 pf=0.92 daily="RU7_DO" status=variable vmaxpu=1.5 vminpu=0.92
New "Load.BT_IP3143_M1" bus1="BT60361.1.4" phases=1 conn=Wye model=2 kv=0.22 kw=0.024515 pf=0.92 daily="IP1_DO" status=variable vmaxpu=1.5 vminpu=0.92
New "Load.BT_IP3143_M2" bus1="BT60361.1.4" phases=1 conn=Wye model=3 kv=0.22 kw=0.024515 pf=0.92 daily="IP1_DO" status=variable vmaxpu=1.5 vminpu=0.92
New "Load.BT_IP3144_M1" bus1="BT732621.1.4" phases=1 conn=Wye model=2 kv=0.22 kw=0.009339 pf=0.92 daily="IP1_DO" status=variable vmaxpu=1.5 vminpu=0.92
New "Load.BT_IP3144_M2" bus1="BT732621.1.4" phases=1 conn=Wye model=3 kv=0.22 kw=0.009339 pf=0.92 daily="IP1_DO" status=variable vmaxpu=1.5 vminpu=0.92
New "Load.BT_IP7722_M1" bus1="BT664011.1.4" phases=1 conn=Wye model=2 kv=0.22 kw=0.009339 pf=0.92 daily="IP1_DO" status=variable vmaxpu=1.5 vminpu=0.92
New "Load.BT_IP7722_M2" bus1="BT664011.1.4" phases=1 conn=Wye model=3 kv=0.22 kw=0.009339 pf=0.92 daily="IP1_DO" status=variable vmaxpu=1.5 vminpu=0.92
New "Load.BT_IP7723_M1" bus1="BT664001.1.4" phases=1 conn=Wye model=2 kv=0.22 kw=0.130187 pf=0.92 daily="IP1_DO" status=variable vmaxpu=1.5 vminpu=0.92
New "Load.BT_IP7723_M2" bus1="BT664001.1.4" phases=1 conn=Wye model=3 kv=0.22 kw=0.130187 pf=0.92 daily="IP1_DO" status=variable vmaxpu=1.5 vminpu=0.92
New "Load.BT_IP7724_M1" bus1="BT649241.1.4" phases=1 conn=Wye model=2 kv=0.22 kw=0.039691 pf=0.92 daily="IP1_DO" status=variable vmaxpu=1.5 vminpu=0.92
New "Load.BT_IP7724_M2" bus1="BT649241.1.4" phases=1 conn=Wye model=3 kv=0.22 kw=0.039691 pf=0.92 daily="IP1_DO" status=variable vmaxpu=1.5 vminpu=0.92
New "Load.BT_IP7725_M1" bus1="BT649231.1.4" phases=1 conn=Wye model=2 kv=0.22 kw=0.130187 pf=0.92 daily="IP1_DO" status=variable vmaxpu=1.5 vminpu=0.92
New "Load.BT_IP7725_M2" bus1="BT649231.1.4" phases=1 conn=Wye model=3 kv=0.22 kw=0.130187 pf=0.92 daily="IP1_DO" status=variable vmaxpu=1.5 vminpu=0.92
New "Load.BT_2805436_M1" bus1="UC2805436.2.4" phases=1 conn=Wye model=2 kv=0.22 kw=0.081793 pf=0.92 daily="RU2_DO" status=variable vmaxpu=1.5 vminpu=0.92
New "Load.BT_2805436_M2" bus1="UC2805436.2.4" phases=1 conn=Wye model=3 kv=0.22 kw=0.081793 pf=0.92 daily="RU2_DO" status=variable vmaxpu=1.5 vminpu=0.92
New "Load.BT_2805382_M1" bus1="UC2805382.1.2.4" phases=1 conn=Delta model=2 kv=0.44 kw=0.015295 pf=0.92 daily="RU1_DO" status=variable vmaxpu=1.5 vminpu=0.92
New "Load.BT_2805382_M2" bus1="UC2805382.1.2.4" phases=1 conn=Delta model=3 kv=0.44 kw=0.015295 pf=0.92 daily="RU1_DO" status=variable vmaxpu=1.5 vminpu=0.92
New "Load.BT_2805441_M1" bus1="UC2805441.1.4" phases=1 conn=Wye model=2 kv=0.22 kw=0.1795345 pf=0.92 daily="RU7_DO" status=variable vmaxpu=1.5 vminpu=0.92
New "Load.BT_2805441_M2" bus1="UC2805441.1.4" phases=1 conn=Wye model=3 kv=0.22 kw=0.1795345 pf=0.92 daily="RU7_DO" status=variable vmaxpu=1.5 vminpu=0.92
New "Load.BT_2805442_M1" bus1="UC2805442.2.4" phases=1 conn=Wye model=2 kv=0.22 kw=0.3285535 pf=0.92 daily="RU4_DO" status=variable vmaxpu=1.5 vminpu=0.92
New "Load.BT_2805442_M2" bus1="UC2805442.2.4" phases=1 conn=Wye model=3 kv=0.22 kw=0.3285535 pf=0.92 daily="RU4_DO" status=variable vmaxpu=1.5 vminpu=0.92
New "Load.BT_2805218_M1" bus1="UC2805218.1.2.4" phases=1 conn=Delta model=2 kv=0.44 kw=0.249302 pf=0.92 daily="RU3_DO" status=variable vmaxpu=1.5 vminpu=0.92
New "Load.BT_2805218_M2" bus1="UC2805218.1.2.4" phases=1 conn=Delta model=3 kv=0.44 kw=0.249302 pf=0.92 daily="RU3_DO" status=variable vmaxpu=1.5 vminpu=0.92
New "Load.BT_2827086_M1" bus1="UC2827086.1.4" phases=1 conn=Wye model=2 kv=0.22 kw=0.2291325 pf=0.92 daily="RU8_DO" status=variable vmaxpu=1.5 vminpu=0.92
New "Load.BT_2827086_M2" bus1="UC2827086.1.4" phases=1 conn=Wye model=3 kv=0.22 kw=0.2291325 pf=0.92 daily="RU8_DO" status=variable vmaxpu=1.5 vminpu=0.92
New "Load.BT_2825296_M1" bus1="UC2825296.2.4" phases=1 conn=Wye model=2 kv=0.22 kw=0.1575325 pf=0.92 daily="RU7_DO" status=variable vmaxpu=1.5 vminpu=0.92
New "Load.BT_2825296_M2" bus1="UC2825296.2.4" phases=1 conn=Wye model=3 kv=0.22 kw=0.1575325 pf=0.92 daily="RU7_DO" status=variable vmaxpu=1.5 vminpu=0.92
New "Load.BT_2823647_M1" bus1="UC2823647.1.4" phases=1 conn=Wye model=2 kv=0.22 kw=0.014163 pf=0.92 daily="RU2_DO" status=variable vmaxpu=1.5 vminpu=0.92
New "Load.BT_2823647_M2" bus1="UC2823647.1.4" phases=1 conn=Wye model=3 kv=0.22 kw=0.014163 pf=0.92 daily="RU2_DO" status=variable vmaxpu=1.5 vminpu=0.92
New "Load.BT_2806081_M1" bus1="UC2806081.1.4" phases=1 conn=Wye model=2 kv=0.22 kw=0.0665675 pf=0.92 daily="RU2_DO" status=variable vmaxpu=1.5 vminpu=0.92
New "Load.BT_2806081_M2" bus1="UC2806081.1.4" phases=1 conn=Wye model=3 kv=0.22 kw=0.0665675 pf=0.92 daily="RU2_DO" status=variable vmaxpu=1.5 vminpu=0.92
New "Load.BT_2806084_M1" bus1="UC2806084.2.4" phases=1 conn=Wye model=2 kv=0.22 kw=0.0177885 pf=0.92 daily="RU1_DO" status=variable vmaxpu=1.5 vminpu=0.92
New "Load.BT_2806084_M2" bus1="UC2806084.2.4" phases=1 conn=Wye model=3 kv=0.22 kw=0.0177885 pf=0.92 daily="RU1_DO" status=variable vmaxpu=1.5 vminpu=0.92
New "Load.BT_2823477_M1" bus1="UC2823477.2.4" phases=1 conn=Wye model=2 kv=0.22 kw=0.3341705 pf=0.92 daily="RU3_DO" status=variable vmaxpu=1.5 vminpu=0.92
New "Load.BT_2823477_M2" bus1="UC2823477.2.4" phases=1 conn=Wye model=3 kv=0.22 kw=0.3341705 pf=0.92 daily="RU3_DO" status=variable vmaxpu=1.5 vminpu=0.92
New "Load.BT_2825597_M1" bus1="UC2825597.1.4" phases=1 conn=Wye model=2 kv=0.22 kw=0.455768 pf=0.92 daily="RU4_DO" status=variable vmaxpu=1.5 vminpu=0.92
New "Load.BT_2825597_M2" bus1="UC2825597.1.4" phases=1 conn=Wye model=3 kv=0.22 kw=0.455768 pf=0.92 daily="RU4_DO" status=variable vmaxpu=1.5 vminpu=0.92
New "Load.BT_2805368_M1" bus1="UC2805368.1.2.4" phases=1 conn=Delta model=2 kv=0.44 kw=1.105678 pf=0.92 daily="RU6_DO" status=variable vmaxpu=1.5 vminpu=0.92
New "Load.BT_2805368_M2" bus1="UC2805368.1.2.4" phases=1 conn=Delta model=3 kv=0.44 kw=1.105678 pf=0.92 daily="RU6_DO" status=variable vmaxpu=1.5 vminpu=0.92
New "Load.BT_2805369_M1" bus1="UC2805369.2.4" phases=1 conn=Wye model=2 kv=0.22 kw=0.198896 pf=0.92 daily="RU7_DO" status=variable vmaxpu=1.5 vminpu=0.92
New "Load.BT_2805369_M2" bus1="UC2805369.2.4" phases=1 conn=Wye model=3 kv=0.22 kw=0.198896 pf=0.92 daily="RU7_DO" status=variable vmaxpu=1.5 vminpu=0.92
New "Load.BT_2806068_M1" bus1="UC2806068.2.4" phases=1 conn=Wye model=2 kv=0.22 kw=0.12937 pf=0.92 daily="RU7_DO" status=variable vmaxpu=1.5 vminpu=0.92
New "Load.BT_2806068_M2" bus1="UC2806068.2.4" phases=1 conn=Wye model=3 kv=0.22 kw=0.12937 pf=0.92 daily="RU7_DO" status=variable vmaxpu=1.5 vminpu=0.92
New "Load.BT_2838210_M1" bus1="UC2838210.1.4" phases=1 conn=Wye model=2 kv=0.22 kw=0.059231 pf=0.92 daily="RU3_DO" status=variable vmaxpu=1.5 vminpu=0.92
New "Load.BT_2838210_M2" bus1="UC2838210.1.4" phases=1 conn=Wye model=3 kv=0.22 kw=0.059231 pf=0.92 daily="RU3_DO" status=variable vmaxpu=1.5 vminpu=0.92
New "Load.BT_IP3146_M1" bus1="ET28_1945.1.4" phases=1 conn=Wye model=2 kv=0.22 kw=0.009339 pf=0.92 daily="IP1_DO" status=variable vmaxpu=1.5 vminpu=0.92
New "Load.BT_IP3146_M2" bus1="ET28_1945.1.4" phases=1 conn=Wye model=3 kv=0.22 kw=0.009339 pf=0.92 daily="IP1_DO" status=variable vmaxpu=1.5 vminpu=0.92
New "Load.BT_2807370_M1" bus1="UC2807370.1.2.4" phases=1 conn=Delta model=2 kv=0.44 kw=0.06161 pf=0.92 daily="RU2_DO" status=variable vmaxpu=1.5 vminpu=0.92
New "Load.BT_2807370_M2" bus1="UC2807370.1.2.4" phases=1 conn=Delta model=3 kv=0.44 kw=0.06161 pf=0.92 daily="RU2_DO" status=variable vmaxpu=1.5 vminpu=0.92
New "Load.BT_2805353_M1" bus1="UC2805353.1.4" phases=1 conn=Wye model=2 kv=0.22 kw=0.073649 pf=0.92 daily="RU2_DO" status=variable vmaxpu=1.5 vminpu=0.92
New "Load.BT_2805353_M2" bus1="UC2805353.1.4" phases=1 conn=Wye model=3 kv=0.22 kw=0.073649 pf=0.92 daily="RU2_DO" status=variable vmaxpu=1.5 vminpu=0.92
New "Load.BT_2805243_M1" bus1="UC2805243.1.4" phases=1 conn=Wye model=2 kv=0.22 kw=0.280787 pf=0.92 daily="RU2_DO" status=variable vmaxpu=1.5 vminpu=0.92
New "Load.BT_2805243_M2" bus1="UC2805243.1.4" phases=1 conn=Wye model=3 kv=0.22 kw=0.280787 pf=0.92 daily="RU2_DO" status=variable vmaxpu=1.5 vminpu=0.92
New "Load.BT_2828387_M1" bus1="UC2828387.2.4" phases=1 conn=Wye model=2 kv=0.22 kw=0.18565 pf=0.92 daily="RU3_DO" status=variable vmaxpu=1.5 vminpu=0.92
New "Load.BT_2828387_M2" bus1="UC2828387.2.4" phases=1 conn=Wye model=3 kv=0.22 kw=0.18565 pf=0.92 daily="RU3_DO" status=variable vmaxpu=1.5 vminpu=0.92
New "Load.BT_IP7692_M1" bus1="BT648971.2.4" phases=1 conn=Wye model=2 kv=0.22 kw=0.009339 pf=0.92 daily="IP1_DO" status=variable vmaxpu=1.5 vminpu=0.92
New "Load.BT_IP7692_M2" bus1="BT648971.2.4" phases=1 conn=Wye model=3 kv=0.22 kw=0.009339 pf=0.92 daily="IP1_DO" status=variable vmaxpu=1.5 vminpu=0.92
New "Load.BT_IP7693_M1" bus1="BT135581.1.4" phases=1 conn=Wye model=2 kv=0.22 kw=0.030352 pf=0.92 daily="IP1_DO" status=variable vmaxpu=1.5 vminpu=0.92
New "Load.BT_IP7693_M2" bus1="BT135581.1.4" phases=1 conn=Wye model=3 kv=0.22 kw=0.030352 pf=0.92 daily="IP1_DO" status=variable vmaxpu=1.5 vminpu=0.92
New "Load.BT_IP7700_M1" bus1="BT451791.1.4" phases=1 conn=Wye model=2 kv=0.219393102 kw=0.008405 pf=0.92 daily="IP1_DO" status=variable vmaxpu=1.5 vminpu=0.92
New "Load.BT_IP7700_M2" bus1="BT451791.1.4" phases=1 conn=Wye model=3 kv=0.219393102 kw=0.008405 pf=0.92 daily="IP1_DO" status=variable vmaxpu=1.5 vminpu=0.92
New "Load.BT_IP3225_M1" bus1="ET28_1990.1.4" phases=1 conn=Wye model=2 kv=0.219393102 kw=0.030352 pf=0.92 daily="IP1_DO" status=variable vmaxpu=1.5 vminpu=0.92
New "Load.BT_IP3225_M2" bus1="ET28_1990.1.4" phases=1 conn=Wye model=3 kv=0.219393102 kw=0.030352 pf=0.92 daily="IP1_DO" status=variable vmaxpu=1.5 vminpu=0.92
New "Load.BT_IP3226_M1" bus1="BT513191.1.4" phases=1 conn=Wye model=2 kv=0.219393102 kw=0.0350215 pf=0.92 daily="IP1_DO" status=variable vmaxpu=1.5 vminpu=0.92
New "Load.BT_IP3226_M2" bus1="BT513191.1.4" phases=1 conn=Wye model=3 kv=0.219393102 kw=0.0350215 pf=0.92 daily="IP1_DO" status=variable vmaxpu=1.5 vminpu=0.92
New "Load.BT_IP3227_M1" bus1="BT325631.1.4" phases=1 conn=Wye model=2 kv=0.219393102 kw=0.009339 pf=0.92 daily="IP1_DO" status=variable vmaxpu=1.5 vminpu=0.92
New "Load.BT_IP3227_M2" bus1="BT325631.1.4" phases=1 conn=Wye model=3 kv=0.219393102 kw=0.009339 pf=0.92 daily="IP1_DO" status=variable vmaxpu=1.5 vminpu=0.92
New "Load.BT_IP3228_M1" bus1="BT451791.1.4" phases=1 conn=Wye model=2 kv=0.219393102 kw=0.009339 pf=0.92 daily="IP1_DO" status=variable vmaxpu=1.5 vminpu=0.92
New "Load.BT_IP3228_M2" bus1="BT451791.1.4" phases=1 conn=Wye model=3 kv=0.219393102 kw=0.009339 pf=0.92 daily="IP1_DO" status=variable vmaxpu=1.5 vminpu=0.92
New "Load.BT_IP3230_M1" bus1="BT451801.1.4" phases=1 conn=Wye model=2 kv=0.219393102 kw=0.018678 pf=0.92 daily="IP1_DO" status=variable vmaxpu=1.5 vminpu=0.92
New "Load.BT_IP3230_M2" bus1="BT451801.1.4" phases=1 conn=Wye model=3 kv=0.219393102 kw=0.018678 pf=0.92 daily="IP1_DO" status=variable vmaxpu=1.5 vminpu=0.92
New "Load.BT_IP3231_M1" bus1="BT60841.1.4" phases=1 conn=Wye model=2 kv=0.219393102 kw=0.009339 pf=0.92 daily="IP1_DO" status=variable vmaxpu=1.5 vminpu=0.92
New "Load.BT_IP3231_M2" bus1="BT60841.1.4" phases=1 conn=Wye model=3 kv=0.219393102 kw=0.009339 pf=0.92 daily="IP1_DO" status=variable vmaxpu=1.5 vminpu=0.92
New "Load.BT_IP3233_M1" bus1="BT60831.1.4" phases=1 conn=Wye model=2 kv=0.219393102 kw=0.009339 pf=0.92 daily="IP1_DO" status=variable vmaxpu=1.5 vminpu=0.92
New "Load.BT_IP3233_M2" bus1="BT60831.1.4" phases=1 conn=Wye model=3 kv=0.219393102 kw=0.009339 pf=0.92 daily="IP1_DO" status=variable vmaxpu=1.5 vminpu=0.92
New "Load.BT_IP3234_M1" bus1="BT513211.1.4" phases=1 conn=Wye model=2 kv=0.219393102 kw=0.0350215 pf=0.92 daily="IP1_DO" status=variable vmaxpu=1.5 vminpu=0.92
New "Load.BT_IP3234_M2" bus1="BT513211.1.4" phases=1 conn=Wye model=3 kv=0.219393102 kw=0.0350215 pf=0.92 daily="IP1_DO" status=variable vmaxpu=1.5 vminpu=0.92
New "Load.BT_IP3235_M1" bus1="BT513221.1.4" phases=1 conn=Wye model=2 kv=0.219393102 kw=0.0350215 pf=0.92 daily="IP1_DO" status=variable vmaxpu=1.5 vminpu=0.92
New "Load.BT_IP3235_M2" bus1="BT513221.1.4" phases=1 conn=Wye model=3 kv=0.219393102 kw=0.0350215 pf=0.92 daily="IP1_DO" status=variable vmaxpu=1.5 vminpu=0.92
New "Load.BT_IP3236_M1" bus1="BT476731.1.4" phases=1 conn=Wye model=2 kv=0.219393102 kw=0.0350215 pf=0.92 daily="IP1_DO" status=variable vmaxpu=1.5 vminpu=0.92
New "Load.BT_IP3236_M2" bus1="BT476731.1.4" phases=1 conn=Wye model=3 kv=0.219393102 kw=0.0350215 pf=0.92 daily="IP1_DO" status=variable vmaxpu=1.5 vminpu=0.92
New "Load.BT_IP3237_M1" bus1="BT513231.1.4" phases=1 conn=Wye model=2 kv=0.219393102 kw=0.009339 pf=0.92 daily="IP1_DO" status=variable vmaxpu=1.5 vminpu=0.92
New "Load.BT_IP3237_M2" bus1="BT513231.1.4" phases=1 conn=Wye model=3 kv=0.219393102 kw=0.009339 pf=0.92 daily="IP1_DO" status=variable vmaxpu=1.5 vminpu=0.92
New "Load.BT_IP3238_M1" bus1="BT513221.1.4" phases=1 conn=Wye model=2 kv=0.219393102 kw=0.009339 pf=0.92 daily="IP1_DO" status=variable vmaxpu=1.5 vminpu=0.92
New "Load.BT_IP3238_M2" bus1="BT513221.1.4" phases=1 conn=Wye model=3 kv=0.219393102 kw=0.009339 pf=0.92 daily="IP1_DO" status=variable vmaxpu=1.5 vminpu=0.92
New "Load.BT_2828397_M1" bus1="UC2828397.1.4" phases=1 conn=Wye model=2 kv=0.219393102 kw=0.4300415 pf=0.92 daily="RE4_DO" status=variable vmaxpu=1.5 vminpu=0.92
New "Load.BT_2828397_M2" bus1="UC2828397.1.4" phases=1 conn=Wye model=3 kv=0.219393102 kw=0.4300415 pf=0.92 daily="RE4_DO" status=variable vmaxpu=1.5 vminpu=0.92
New "Load.BT_2828509_M1" bus1="UC2828509.1.4" phases=1 conn=Wye model=2 kv=0.219393102 kw=0.2797975 pf=0.92 daily="RE3_DO" status=variable vmaxpu=1.5 vminpu=0.92
New "Load.BT_2828509_M2" bus1="UC2828509.1.4" phases=1 conn=Wye model=3 kv=0.219393102 kw=0.2797975 pf=0.92 daily="RE3_DO" status=variable vmaxpu=1.5 vminpu=0.92
New "Load.BT_2828513_M1" bus1="UC2828513.1.4" phases=1 conn=Wye model=2 kv=0.219393102 kw=0.0892775 pf=0.92 daily="RE3_DO" status=variable vmaxpu=1.5 vminpu=0.92
New "Load.BT_2828513_M2" bus1="UC2828513.1.4" phases=1 conn=Wye model=3 kv=0.219393102 kw=0.0892775 pf=0.92 daily="RE3_DO" status=variable vmaxpu=1.5 vminpu=0.92
New "Load.BT_2831487_M1" bus1="UC2831487.3.4" phases=1 conn=Wye model=2 kv=0.219393102 kw=0.2917625 pf=0.92 daily="RE3_DO" status=variable vmaxpu=1.5 vminpu=0.92
New "Load.BT_2831487_M2" bus1="UC2831487.3.4" phases=1 conn=Wye model=3 kv=0.219393102 kw=0.2917625 pf=0.92 daily="RE3_DO" status=variable vmaxpu=1.5 vminpu=0.92
New "Load.BT_2828385_M1" bus1="UC2828385.3.4" phases=1 conn=Wye model=2 kv=0.219393102 kw=0.147241 pf=0.92 daily="RE2_DO" status=variable vmaxpu=1.5 vminpu=0.92
New "Load.BT_2828385_M2" bus1="UC2828385.3.4" phases=1 conn=Wye model=3 kv=0.219393102 kw=0.147241 pf=0.92 daily="RE2_DO" status=variable vmaxpu=1.5 vminpu=0.92
New "Load.BT_2831492_M1" bus1="UC2831492.2.4" phases=1 conn=Wye model=2 kv=0.219393102 kw=0.226805 pf=0.92 daily="RE1_DO" status=variable vmaxpu=1.5 vminpu=0.92
New "Load.BT_2831492_M2" bus1="UC2831492.2.4" phases=1 conn=Wye model=3 kv=0.219393102 kw=0.226805 pf=0.92 daily="RE1_DO" status=variable vmaxpu=1.5 vminpu=0.92
New "Load.BT_2831494_M1" bus1="UC2831494.1.4" phases=1 conn=Wye model=2 kv=0.219393102 kw=0.2382045 pf=0.92 daily="RE4_DO" status=variable vmaxpu=1.5 vminpu=0.92
New "Load.BT_2831494_M2" bus1="UC2831494.1.4" phases=1 conn=Wye model=3 kv=0.219393102 kw=0.2382045 pf=0.92 daily="RE4_DO" status=variable vmaxpu=1.5 vminpu=0.92
New "Load.BT_2838192_M1" bus1="UC2838192.1.4" phases=1 conn=Wye model=2 kv=0.219393102 kw=0 pf=0.92 daily="RE2_DO" status=variable vmaxpu=1.5 vminpu=0.92
New "Load.BT_2838192_M2" bus1="UC2838192.1.4" phases=1 conn=Wye model=3 kv=0.219393102 kw=0 pf=0.92 daily="RE2_DO" status=variable vmaxpu=1.5 vminpu=0.92
New "Load.BT_2838196_M1" bus1="UC2838196.1.4" phases=1 conn=Wye model=2 kv=0.219393102 kw=0.0369075 pf=0.92 daily="RE7_DO" status=variable vmaxpu=1.5 vminpu=0.92
New "Load.BT_2838196_M2" bus1="UC2838196.1.4" phases=1 conn=Wye model=3 kv=0.219393102 kw=0.0369075 pf=0.92 daily="RE7_DO" status=variable vmaxpu=1.5 vminpu=0.92
New "Load.BT_2835544_M1" bus1="UC2835544.1.4" phases=1 conn=Wye model=2 kv=0.219393102 kw=0.231257 pf=0.92 daily="RE8_DO" status=variable vmaxpu=1.5 vminpu=0.92
New "Load.BT_2835544_M2" bus1="UC2835544.1.4" phases=1 conn=Wye model=3 kv=0.219393102 kw=0.231257 pf=0.92 daily="RE8_DO" status=variable vmaxpu=1.5 vminpu=0.92
New "Load.BT_2835361_M1" bus1="UC2835361.2.4" phases=1 conn=Wye model=2 kv=0.219393102 kw=0.316145 pf=0.92 daily="RE6_DO" status=variable vmaxpu=1.5 vminpu=0.92
New "Load.BT_2835361_M2" bus1="UC2835361.2.4" phases=1 conn=Wye model=3 kv=0.219393102 kw=0.316145 pf=0.92 daily="RE6_DO" status=variable vmaxpu=1.5 vminpu=0.92
New "Load.BT_2835362_M1" bus1="UC2835362.3.4" phases=1 conn=Wye model=2 kv=0.219393102 kw=0.5373315 pf=0.92 daily="RE7_DO" status=variable vmaxpu=1.5 vminpu=0.92
New "Load.BT_2835362_M2" bus1="UC2835362.3.4" phases=1 conn=Wye model=3 kv=0.219393102 kw=0.5373315 pf=0.92 daily="RE7_DO" status=variable vmaxpu=1.5 vminpu=0.92
New "Load.BT_2805373_M1" bus1="UC2805373.1.4" phases=1 conn=Wye model=2 kv=0.219393102 kw=0.103124 pf=0.92 daily="RE7_DO" status=variable vmaxpu=1.5 vminpu=0.92
New "Load.BT_2805373_M2" bus1="UC2805373.1.4" phases=1 conn=Wye model=3 kv=0.219393102 kw=0.103124 pf=0.92 daily="RE7_DO" status=variable vmaxpu=1.5 vminpu=0.92
New "Load.BT_2817021_M1" bus1="UC2817021.1.4" phases=1 conn=Wye model=2 kv=0.219393102 kw=0.310523 pf=0.92 daily="RU4_DO" status=variable vmaxpu=1.5 vminpu=0.92
New "Load.BT_2817021_M2" bus1="UC2817021.1.4" phases=1 conn=Wye model=3 kv=0.219393102 kw=0.310523 pf=0.92 daily="RU4_DO" status=variable vmaxpu=1.5 vminpu=0.92
New "Load.BT_2817022_M1" bus1="UC2817022.2.4" phases=1 conn=Wye model=2 kv=0.219393102 kw=0.2968375 pf=0.92 daily="RE8_DO" status=variable vmaxpu=1.5 vminpu=0.92
New "Load.BT_2817022_M2" bus1="UC2817022.2.4" phases=1 conn=Wye model=3 kv=0.219393102 kw=0.2968375 pf=0.92 daily="RE8_DO" status=variable vmaxpu=1.5 vminpu=0.92
New "Load.BT_2817023_M1" bus1="UC2817023.3.4" phases=1 conn=Wye model=2 kv=0.219393102 kw=0.075935 pf=0.92 daily="RE8_DO" status=variable vmaxpu=1.5 vminpu=0.92
New "Load.BT_2817023_M2" bus1="UC2817023.3.4" phases=1 conn=Wye model=3 kv=0.219393102 kw=0.075935 pf=0.92 daily="RE8_DO" status=variable vmaxpu=1.5 vminpu=0.92
New "Load.BT_2817029_M1" bus1="UC2817029.2.4" phases=1 conn=Wye model=2 kv=0.219393102 kw=0.328072 pf=0.92 daily="RE1_DO" status=variable vmaxpu=1.5 vminpu=0.92
New "Load.BT_2817029_M2" bus1="UC2817029.2.4" phases=1 conn=Wye model=3 kv=0.219393102 kw=0.328072 pf=0.92 daily="RE1_DO" status=variable vmaxpu=1.5 vminpu=0.92
New "Load.BT_2817040_M1" bus1="UC2817040.2.4" phases=1 conn=Wye model=2 kv=0.219393102 kw=0.357639 pf=0.92 daily="RE6_DO" status=variable vmaxpu=1.5 vminpu=0.92
New "Load.BT_2817040_M2" bus1="UC2817040.2.4" phases=1 conn=Wye model=3 kv=0.219393102 kw=0.357639 pf=0.92 daily="RE6_DO" status=variable vmaxpu=1.5 vminpu=0.92
New "Load.BT_2817049_M1" bus1="UC2817049.3.4" phases=1 conn=Wye model=2 kv=0.219393102 kw=0.026556 pf=0.92 daily="RU2_DO" status=variable vmaxpu=1.5 vminpu=0.92
New "Load.BT_2817049_M2" bus1="UC2817049.3.4" phases=1 conn=Wye model=3 kv=0.219393102 kw=0.026556 pf=0.92 daily="RU2_DO" status=variable vmaxpu=1.5 vminpu=0.92
New "Load.BT_2818331_M1" bus1="UC2818331.1.4" phases=1 conn=Wye model=2 kv=0.219393102 kw=0.259365 pf=0.92 daily="RU5_DO" status=variable vmaxpu=1.5 vminpu=0.92
New "Load.BT_2818331_M2" bus1="UC2818331.1.4" phases=1 conn=Wye model=3 kv=0.219393102 kw=0.259365 pf=0.92 daily="RU5_DO" status=variable vmaxpu=1.5 vminpu=0.92
New "Load.BT_2818350_M1" bus1="UC2818350.1.2.3.4" phases=3 conn=Delta model=2 kv=0.38 kw=3.442181 pf=0.92 daily="RE7_DO" status=variable vmaxpu=1.5 vminpu=0.92
New "Load.BT_2818350_M2" bus1="UC2818350.1.2.3.4" phases=3 conn=Delta model=3 kv=0.38 kw=3.442181 pf=0.92 daily="RE7_DO" status=variable vmaxpu=1.5 vminpu=0.92
New "Load.BT_2819356_M1" bus1="UC2819356.3.4" phases=1 conn=Wye model=2 kv=0.219393102 kw=0.5070115 pf=0.92 daily="RE5_DO" status=variable vmaxpu=1.5 vminpu=0.92
New "Load.BT_2819356_M2" bus1="UC2819356.3.4" phases=1 conn=Wye model=3 kv=0.219393102 kw=0.5070115 pf=0.92 daily="RE5_DO" status=variable vmaxpu=1.5 vminpu=0.92
New "Load.BT_2819376_M1" bus1="UC2819376.1.2.3.4" phases=3 conn=Delta model=2 kv=0.38 kw=1.536691 pf=0.92 daily="CO4_DO" status=variable vmaxpu=1.5 vminpu=0.92
New "Load.BT_2819376_M2" bus1="UC2819376.1.2.3.4" phases=3 conn=Delta model=3 kv=0.38 kw=1.536691 pf=0.92 daily="CO4_DO" status=variable vmaxpu=1.5 vminpu=0.92
New "Load.BT_2819397_M1" bus1="UC2819397.1.4" phases=1 conn=Wye model=2 kv=0.219393102 kw=0.0032615 pf=0.92 daily="CO7_DO" status=variable vmaxpu=1.5 vminpu=0.92
New "Load.BT_2819397_M2" bus1="UC2819397.1.4" phases=1 conn=Wye model=3 kv=0.219393102 kw=0.0032615 pf=0.92 daily="CO7_DO" status=variable vmaxpu=1.5 vminpu=0.92
New "Load.BT_2819399_M1" bus1="UC2819399.3.4" phases=1 conn=Wye model=2 kv=0.219393102 kw=0.2290445 pf=0.92 daily="RE7_DO" status=variable vmaxpu=1.5 vminpu=0.92
New "Load.BT_2819399_M2" bus1="UC2819399.3.4" phases=1 conn=Wye model=3 kv=0.219393102 kw=0.2290445 pf=0.92 daily="RE7_DO" status=variable vmaxpu=1.5 vminpu=0.92
New "Load.BT_2825849_M1" bus1="UC2825849.1.4" phases=1 conn=Wye model=2 kv=0.219393102 kw=0.252186 pf=0.92 daily="RE3_DO" status=variable vmaxpu=1.5 vminpu=0.92
New "Load.BT_2825849_M2" bus1="UC2825849.1.4" phases=1 conn=Wye model=3 kv=0.219393102 kw=0.252186 pf=0.92 daily="RE3_DO" status=variable vmaxpu=1.5 vminpu=0.92
New "Load.BT_2824967_M1" bus1="UC2824967.1.4" phases=1 conn=Wye model=2 kv=0.219393102 kw=0.226415 pf=0.92 daily="RE3_DO" status=variable vmaxpu=1.5 vminpu=0.92
New "Load.BT_2824967_M2" bus1="UC2824967.1.4" phases=1 conn=Wye model=3 kv=0.219393102 kw=0.226415 pf=0.92 daily="RE3_DO" status=variable vmaxpu=1.5 vminpu=0.92
New "Load.BT_2827940_M1" bus1="UC2827940.1.4" phases=1 conn=Wye model=2 kv=0.219393102 kw=0.1116015 pf=0.92 daily="RE8_DO" status=variable vmaxpu=1.5 vminpu=0.92
New "Load.BT_2827940_M2" bus1="UC2827940.1.4" phases=1 conn=Wye model=3 kv=0.219393102 kw=0.1116015 pf=0.92 daily="RE8_DO" status=variable vmaxpu=1.5 vminpu=0.92
New "Load.BT_2827943_M1" bus1="UC2827943.2.4" phases=1 conn=Wye model=2 kv=0.219393102 kw=0.000815 pf=0.92 daily="CO7_DO" status=variable vmaxpu=1.5 vminpu=0.92
New "Load.BT_2827943_M2" bus1="UC2827943.2.4" phases=1 conn=Wye model=3 kv=0.219393102 kw=0.000815 pf=0.92 daily="CO7_DO" status=variable vmaxpu=1.5 vminpu=0.92
New "Load.BT_2824964_M1" bus1="UC2824964.2.4" phases=1 conn=Wye model=2 kv=0.219393102 kw=0.1146025 pf=0.92 daily="RE6_DO" status=variable vmaxpu=1.5 vminpu=0.92
New "Load.BT_2824964_M2" bus1="UC2824964.2.4" phases=1 conn=Wye model=3 kv=0.219393102 kw=0.1146025 pf=0.92 daily="RE6_DO" status=variable vmaxpu=1.5 vminpu=0.92
New "Load.BT_2821025_M1" bus1="UC2821025.1.4" phases=1 conn=Wye model=2 kv=0.219393102 kw=0.4267495 pf=0.92 daily="RE2_DO" status=variable vmaxpu=1.5 vminpu=0.92
New "Load.BT_2821025_M2" bus1="UC2821025.1.4" phases=1 conn=Wye model=3 kv=0.219393102 kw=0.4267495 pf=0.92 daily="RE2_DO" status=variable vmaxpu=1.5 vminpu=0.92
New "Load.BT_2821288_M1" bus1="UC2821288.2.4" phases=1 conn=Wye model=2 kv=0.219393102 kw=0.2153735 pf=0.92 daily="RE6_DO" status=variable vmaxpu=1.5 vminpu=0.92
New "Load.BT_2821288_M2" bus1="UC2821288.2.4" phases=1 conn=Wye model=3 kv=0.219393102 kw=0.2153735 pf=0.92 daily="RE6_DO" status=variable vmaxpu=1.5 vminpu=0.92
New "Load.BT_2821290_M1" bus1="UC2821290.3.4" phases=1 conn=Wye model=2 kv=0.219393102 kw=0.202494 pf=0.92 daily="RE8_DO" status=variable vmaxpu=1.5 vminpu=0.92
New "Load.BT_2821290_M2" bus1="UC2821290.3.4" phases=1 conn=Wye model=3 kv=0.219393102 kw=0.202494 pf=0.92 daily="RE8_DO" status=variable vmaxpu=1.5 vminpu=0.92
New "Load.BT_2821292_M1" bus1="UC2821292.1.4" phases=1 conn=Wye model=2 kv=0.219393102 kw=0.0303725 pf=0.92 daily="RE3_DO" status=variable vmaxpu=1.5 vminpu=0.92
New "Load.BT_2821292_M2" bus1="UC2821292.1.4" phases=1 conn=Wye model=3 kv=0.219393102 kw=0.0303725 pf=0.92 daily="RE3_DO" status=variable vmaxpu=1.5 vminpu=0.92
New "Load.BT_2821691_M1" bus1="UC2821691.3.4" phases=1 conn=Wye model=2 kv=0.219393102 kw=0.2309845 pf=0.92 daily="RE5_DO" status=variable vmaxpu=1.5 vminpu=0.92
New "Load.BT_2821691_M2" bus1="UC2821691.3.4" phases=1 conn=Wye model=3 kv=0.219393102 kw=0.2309845 pf=0.92 daily="RE5_DO" status=variable vmaxpu=1.5 vminpu=0.92
New "Load.BT_2822261_M1" bus1="UC2822261.1.4" phases=1 conn=Wye model=2 kv=0.219393102 kw=0.1622145 pf=0.92 daily="RE2_DO" status=variable vmaxpu=1.5 vminpu=0.92
New "Load.BT_2822261_M2" bus1="UC2822261.1.4" phases=1 conn=Wye model=3 kv=0.219393102 kw=0.1622145 pf=0.92 daily="RE2_DO" status=variable vmaxpu=1.5 vminpu=0.92
New "Load.BT_2822262_M1" bus1="UC2822262.2.4" phases=1 conn=Wye model=2 kv=0.219393102 kw=0.082472 pf=0.92 daily="CO2_DO" status=variable vmaxpu=1.5 vminpu=0.92
New "Load.BT_2822262_M2" bus1="UC2822262.2.4" phases=1 conn=Wye model=3 kv=0.219393102 kw=0.082472 pf=0.92 daily="CO2_DO" status=variable vmaxpu=1.5 vminpu=0.92
...
